**********************************************
**
**        Material Abaqus input File
**    Mathieu Simon, ARTORG Center, 2024 
**
**********************************************
*ORIENTATION, NAME=Orient2
1.0, 0.0, 0.0, 0.0, 1.0, 0.0
** Material Property Elastic 1
*SOLID SECTION, ELSET=SET2, MATERIAL=MATSET2, ORIENTATION=Orient2
1.
*MATERIAL,NAME=MATSET2
*ELASTIC, TYPE=ENGINEERING CONSTANTS
11200, 11200, 19900, 0.3, 0.4, 0.225, 4300, 5700
5700
**
**********************************************
